%Chk="dvb_eomccsd.chk"
%Rwf="dvb_eomccsd.rwf"
%NProcShared=8
%Mem=20GB
#p EOMCCSD=(nstates=10, root=1, Singlets, Triplets) STO-3G SCF=(DIIS) Symmetry=(Tight) Population=(Regular) Density=(SCF)

dvb_eomccsd_Excited_States_Post_HF_S_1___S_2___T_1____T_2__EOM_CCSD_Gas_Phase_Pople_Basis_Sets_STO_3G

0, 1
C          -1.41012         0.26944         0.00000
C          -0.92066        -1.06479        -0.00000
C           0.45706        -1.32539        -0.00000
C           1.41012        -0.26944         0.00000
C           0.92066         1.06479         0.00000
H          -1.62752        -1.90447        -0.00000
H           0.81304        -2.36476        -0.00000
H           1.62752         1.90447         0.00000
C           2.86996        -0.60369        -0.00000
C           3.89207         0.26944        -0.00000
H           3.74231         1.35518        -0.00000
H           3.09015        -1.68186        -0.00000
H           4.93303        -0.07425        -0.00000
C          -2.86996         0.60369        -0.00000
H          -3.09015         1.68186        -0.00000
C          -3.89207        -0.26944        -0.00000
H          -3.74231        -1.35518        -0.00000
H          -4.93303         0.07425        -0.00000
C          -0.45706         1.32539        -0.00000
H          -0.81304         2.36476        -0.00000

